<?xml version="1.0" encoding="UTF-8"?>

<!-- generated on 2025-09-25 12:38:21 by Eclipse SUMO netedit Version 1.24.0
<neteditConfiguration xmlns:xsi="http://www.w3.org/2001/XMLSchema-instance" xsi:noNamespaceSchemaLocation="http://sumo.dlr.de/xsd/neteditConfiguration.xsd">

    <input>
        <sumocfg-file value="D:\Sumo Test\test.sumocfg"/>
        <route-files value="D:\Sumo Test\test.rou.xml"/>
        <sumo-net-file value="D:\Sumo Test\test.net.xml"/>
    </input>

    <output>
        <output-file value="D:\Sumo Test\test.net.xml"/>
    </output>

    <processing>
        <offset.disable-normalization value="true"/>
    </processing>

    <junctions>
        <no-turnarounds value="true"/>
    </junctions>

    <netedit>
        <new-network value="false"/>
    </netedit>

</neteditConfiguration>
-->

<net version="1.20" junctionCornerDetail="5" limitTurnSpeed="5.50" xmlns:xsi="http://www.w3.org/2001/XMLSchema-instance" xsi:noNamespaceSchemaLocation="http://sumo.dlr.de/xsd/net_file.xsd">

    <location netOffset="0.00,0.00" convBoundary="-34.93,-33.76,79.83,42.87" origBoundary="10000000000.00,10000000000.00,-10000000000.00,-10000000000.00" projParameter="!"/>

    <edge id=":clusterJ10_J11_J12_J13_#4more_0" function="internal">
        <lane id=":clusterJ10_J11_J12_J13_#4more_0_0" index="0" speed="6.51" length="9.03" shape="7.99,19.35 7.64,16.90 6.59,15.15 4.84,14.10 2.39,13.75"/>
    </edge>
    <edge id=":clusterJ10_J11_J12_J13_#4more_1" function="internal">
        <lane id=":clusterJ10_J11_J12_J13_#4more_1_0" index="0" speed="13.89" length="19.60" shape="7.99,19.35 7.99,-0.25"/>
    </edge>
    <edge id=":clusterJ10_J11_J12_J13_#4more_2" function="internal">
        <lane id=":clusterJ10_J11_J12_J13_#4more_2_0" index="0" speed="9.71" length="6.06" shape="7.99,19.35 9.25,14.38 9.80,13.63"/>
    </edge>
    <edge id=":clusterJ10_J11_J12_J13_#4more_12" function="internal">
        <lane id=":clusterJ10_J11_J12_J13_#4more_12_0" index="0" speed="9.71" length="15.33" shape="9.80,13.63 12.52,9.87 17.02,6.61 21.99,5.35"/>
    </edge>
    <edge id=":clusterJ10_J11_J12_J13_#4more_3" function="internal">
        <lane id=":clusterJ10_J11_J12_J13_#4more_3_0" index="0" speed="6.51" length="9.03" shape="21.99,13.75 19.54,14.10 17.79,15.15 16.74,16.90 16.39,19.35"/>
    </edge>
    <edge id=":clusterJ10_J11_J12_J13_#4more_4" function="internal">
        <lane id=":clusterJ10_J11_J12_J13_#4more_4_0" index="0" speed="13.89" length="19.60" shape="21.99,13.75 2.39,13.75"/>
    </edge>
    <edge id=":clusterJ10_J11_J12_J13_#4more_5" function="internal">
        <lane id=":clusterJ10_J11_J12_J13_#4more_5_0" index="0" speed="9.71" length="13.50" shape="21.99,13.75 17.02,12.49 12.52,9.22 10.87,6.95"/>
    </edge>
    <edge id=":clusterJ10_J11_J12_J13_#4more_13" function="internal">
        <lane id=":clusterJ10_J11_J12_J13_#4more_13_0" index="0" speed="9.71" length="7.88" shape="10.87,6.95 9.25,4.72 7.99,-0.25"/>
    </edge>
    <edge id=":clusterJ10_J11_J12_J13_#4more_6" function="internal">
        <lane id=":clusterJ10_J11_J12_J13_#4more_6_0" index="0" speed="6.51" length="9.03" shape="16.39,-0.25 16.74,2.20 17.79,3.95 19.54,5.00 21.99,5.35"/>
    </edge>
    <edge id=":clusterJ10_J11_J12_J13_#4more_7" function="internal">
        <lane id=":clusterJ10_J11_J12_J13_#4more_7_0" index="0" speed="13.89" length="19.60" shape="16.39,-0.25 16.39,19.35"/>
    </edge>
    <edge id=":clusterJ10_J11_J12_J13_#4more_8" function="internal">
        <lane id=":clusterJ10_J11_J12_J13_#4more_8_0" index="0" speed="9.71" length="6.06" shape="16.39,-0.25 15.13,4.72 14.59,5.47"/>
    </edge>
    <edge id=":clusterJ10_J11_J12_J13_#4more_14" function="internal">
        <lane id=":clusterJ10_J11_J12_J13_#4more_14_0" index="0" speed="9.71" length="15.33" shape="14.59,5.47 11.87,9.22 7.37,12.49 2.39,13.75"/>
    </edge>
    <edge id=":clusterJ10_J11_J12_J13_#4more_9" function="internal">
        <lane id=":clusterJ10_J11_J12_J13_#4more_9_0" index="0" speed="6.51" length="9.03" shape="2.39,5.35 4.84,5.00 6.59,3.95 7.64,2.20 7.99,-0.25"/>
    </edge>
    <edge id=":clusterJ10_J11_J12_J13_#4more_10" function="internal">
        <lane id=":clusterJ10_J11_J12_J13_#4more_10_0" index="0" speed="13.89" length="19.60" shape="2.39,5.35 21.99,5.35"/>
    </edge>
    <edge id=":clusterJ10_J11_J12_J13_#4more_11" function="internal">
        <lane id=":clusterJ10_J11_J12_J13_#4more_11_0" index="0" speed="9.71" length="13.50" shape="2.39,5.35 7.37,6.61 11.87,9.87 13.52,12.15"/>
    </edge>
    <edge id=":clusterJ10_J11_J12_J13_#4more_15" function="internal">
        <lane id=":clusterJ10_J11_J12_J13_#4more_15_0" index="0" speed="9.71" length="7.88" shape="13.52,12.15 15.13,14.38 16.39,19.35"/>
    </edge>

    <edge id="-E0" from="J2" to="clusterJ10_J11_J12_J13_#4more" priority="-1" shape="79.83,12.15 18.57,12.15">
        <lane id="-E0_0" index="0" speed="13.89" length="57.83" shape="79.83,13.75 21.99,13.75"/>
    </edge>
    <edge id="-E0.74" from="clusterJ10_J11_J12_J13_#4more" to="J3" priority="-1" shape="5.41,12.15 -34.93,12.15">
        <lane id="-E0.74_0" index="0" speed="13.89" length="37.33" shape="2.39,13.75 -34.93,13.75"/>
    </edge>
    <edge id="-E1" from="J6" to="clusterJ10_J11_J12_J13_#4more" priority="-1" shape="14.79,-33.76 14.79,3.26">
        <lane id="-E1_0" index="0" speed="13.89" length="33.51" shape="16.39,-33.76 16.39,-0.25"/>
    </edge>
    <edge id="-E1.49" from="clusterJ10_J11_J12_J13_#4more" to="J7" priority="-1" shape="14.79,15.93 14.79,42.87">
        <lane id="-E1.49_0" index="0" speed="13.89" length="23.52" shape="16.39,19.35 16.39,42.87"/>
    </edge>
    <edge id="E0" from="J0" to="clusterJ10_J11_J12_J13_#4more" priority="-1" shape="-34.93,6.95 5.29,6.95">
        <lane id="E0_0" index="0" speed="13.89" length="37.33" shape="-34.93,5.35 2.39,5.35"/>
    </edge>
    <edge id="E0.53" from="clusterJ10_J11_J12_J13_#4more" to="J1" priority="-1" shape="18.20,6.95 79.83,6.95">
        <lane id="E0.53_0" index="0" speed="13.89" length="57.83" shape="21.99,5.35 79.83,5.35"/>
    </edge>
    <edge id="E1" from="J4" to="clusterJ10_J11_J12_J13_#4more" priority="-1" shape="9.59,42.87 9.59,15.68">
        <lane id="E1_0" index="0" speed="13.89" length="23.52" shape="7.99,42.87 7.99,19.35"/>
    </edge>
    <edge id="E1.39" from="clusterJ10_J11_J12_J13_#4more" to="J5" priority="-1" shape="9.59,3.26 9.59,-33.76">
        <lane id="E1.39_0" index="0" speed="13.89" length="33.51" shape="7.99,-0.25 7.99,-33.76"/>
    </edge>

    <tlLogic id="clusterJ10_J11_J12_J13_#4more" type="static" programID="0" offset="0">
        <phase duration="42" state="GGgrrrGGgrrr"/>
        <phase duration="3"  state="yyyrrryyyrrr"/>
        <phase duration="42" state="rrrGGgrrrGGg"/>
        <phase duration="3"  state="rrryyyrrryyy"/>
    </tlLogic>

    <junction id="J0" type="dead_end" x="-34.93" y="6.95" incLanes="" intLanes="" shape="-34.93,6.95 -34.93,3.75"/>
    <junction id="J1" type="dead_end" x="79.83" y="6.95" incLanes="E0.53_0" intLanes="" shape="79.83,3.75 79.83,6.95"/>
    <junction id="J2" type="dead_end" x="79.83" y="12.15" incLanes="" intLanes="" shape="79.83,12.15 79.83,15.35"/>
    <junction id="J3" type="dead_end" x="-34.93" y="12.15" incLanes="-E0.74_0" intLanes="" shape="-34.93,15.35 -34.93,12.15"/>
    <junction id="J4" type="dead_end" x="9.59" y="42.87" incLanes="" intLanes="" shape="9.59,42.87 6.39,42.87"/>
    <junction id="J5" type="dead_end" x="9.59" y="-33.76" incLanes="E1.39_0" intLanes="" shape="6.39,-33.76 9.59,-33.76"/>
    <junction id="J6" type="dead_end" x="14.79" y="-33.76" incLanes="" intLanes="" shape="14.79,-33.76 17.99,-33.76"/>
    <junction id="J7" type="dead_end" x="14.79" y="42.87" incLanes="-E1.49_0" intLanes="" shape="17.99,42.87 14.79,42.87"/>
    <junction id="clusterJ10_J11_J12_J13_#4more" type="traffic_light" x="12.03" y="9.54" incLanes="E1_0 -E0_0 -E1_0 E0_0" intLanes=":clusterJ10_J11_J12_J13_#4more_0_0 :clusterJ10_J11_J12_J13_#4more_1_0 :clusterJ10_J11_J12_J13_#4more_12_0 :clusterJ10_J11_J12_J13_#4more_3_0 :clusterJ10_J11_J12_J13_#4more_4_0 :clusterJ10_J11_J12_J13_#4more_13_0 :clusterJ10_J11_J12_J13_#4more_6_0 :clusterJ10_J11_J12_J13_#4more_7_0 :clusterJ10_J11_J12_J13_#4more_14_0 :clusterJ10_J11_J12_J13_#4more_9_0 :clusterJ10_J11_J12_J13_#4more_10_0 :clusterJ10_J11_J12_J13_#4more_15_0" shape="6.39,19.35 17.99,19.35 18.44,17.13 18.99,16.35 19.77,15.79 20.77,15.46 21.99,15.35 21.99,3.75 19.77,3.31 18.99,2.75 18.44,1.97 18.11,0.97 17.99,-0.25 6.39,-0.25 5.95,1.97 5.39,2.75 4.62,3.31 3.62,3.64 2.39,3.75 2.39,15.35 4.62,15.79 5.39,16.35 5.95,17.13 6.28,18.13">
        <request index="0"  response="000000000000" foes="000100010000" cont="0"/>
        <request index="1"  response="100000100000" foes="111100110000" cont="0"/>
        <request index="2"  response="100011100000" foes="110111110000" cont="1"/>
        <request index="3"  response="000010000000" foes="100010000000" cont="0"/>
        <request index="4"  response="000110000111" foes="100110000111" cont="0"/>
        <request index="5"  response="111110000110" foes="111110000110" cont="1"/>
        <request index="6"  response="000000000000" foes="010000000100" cont="0"/>
        <request index="7"  response="100000100000" foes="110000111100" cont="0"/>
        <request index="8"  response="100000100111" foes="110000110111" cont="1"/>
        <request index="9"  response="000000000010" foes="000000100010" cont="0"/>
        <request index="10" response="000111000110" foes="000111100110" cont="0"/>
        <request index="11" response="000110011110" foes="000110111110" cont="1"/>
    </junction>

    <junction id=":clusterJ10_J11_J12_J13_#4more_12_0" type="internal" x="9.80" y="13.63" incLanes=":clusterJ10_J11_J12_J13_#4more_2_0 -E1_0" intLanes=":clusterJ10_J11_J12_J13_#4more_4_0 :clusterJ10_J11_J12_J13_#4more_5_0 :clusterJ10_J11_J12_J13_#4more_6_0 :clusterJ10_J11_J12_J13_#4more_7_0 :clusterJ10_J11_J12_J13_#4more_8_0 :clusterJ10_J11_J12_J13_#4more_10_0 :clusterJ10_J11_J12_J13_#4more_11_0"/>
    <junction id=":clusterJ10_J11_J12_J13_#4more_13_0" type="internal" x="10.87" y="6.95" incLanes=":clusterJ10_J11_J12_J13_#4more_5_0 E0_0" intLanes=":clusterJ10_J11_J12_J13_#4more_1_0 :clusterJ10_J11_J12_J13_#4more_2_0 :clusterJ10_J11_J12_J13_#4more_7_0 :clusterJ10_J11_J12_J13_#4more_8_0 :clusterJ10_J11_J12_J13_#4more_9_0 :clusterJ10_J11_J12_J13_#4more_10_0 :clusterJ10_J11_J12_J13_#4more_11_0"/>
    <junction id=":clusterJ10_J11_J12_J13_#4more_14_0" type="internal" x="14.59" y="5.47" incLanes=":clusterJ10_J11_J12_J13_#4more_8_0 :clusterJ10_J11_J12_J13_#4more_2_0 E1_0" intLanes=":clusterJ10_J11_J12_J13_#4more_12_0 :clusterJ10_J11_J12_J13_#4more_0_0 :clusterJ10_J11_J12_J13_#4more_1_0 :clusterJ10_J11_J12_J13_#4more_2_0 :clusterJ10_J11_J12_J13_#4more_4_0 :clusterJ10_J11_J12_J13_#4more_5_0 :clusterJ10_J11_J12_J13_#4more_10_0 :clusterJ10_J11_J12_J13_#4more_11_0"/>
    <junction id=":clusterJ10_J11_J12_J13_#4more_15_0" type="internal" x="13.52" y="12.15" incLanes=":clusterJ10_J11_J12_J13_#4more_11_0 -E0_0" intLanes=":clusterJ10_J11_J12_J13_#4more_1_0 :clusterJ10_J11_J12_J13_#4more_2_0 :clusterJ10_J11_J12_J13_#4more_3_0 :clusterJ10_J11_J12_J13_#4more_4_0 :clusterJ10_J11_J12_J13_#4more_5_0 :clusterJ10_J11_J12_J13_#4more_7_0 :clusterJ10_J11_J12_J13_#4more_8_0"/>

    <connection from="-E0" to="-E1.49" fromLane="0" toLane="0" via=":clusterJ10_J11_J12_J13_#4more_3_0" tl="clusterJ10_J11_J12_J13_#4more" linkIndex="3" dir="r" state="o"/>
    <connection from="-E0" to="-E0.74" fromLane="0" toLane="0" via=":clusterJ10_J11_J12_J13_#4more_4_0" tl="clusterJ10_J11_J12_J13_#4more" linkIndex="4" dir="s" state="o"/>
    <connection from="-E0" to="E1.39" fromLane="0" toLane="0" via=":clusterJ10_J11_J12_J13_#4more_5_0" tl="clusterJ10_J11_J12_J13_#4more" linkIndex="5" dir="l" state="o"/>
    <connection from="-E1" to="E0.53" fromLane="0" toLane="0" via=":clusterJ10_J11_J12_J13_#4more_6_0" tl="clusterJ10_J11_J12_J13_#4more" linkIndex="6" dir="r" state="O"/>
    <connection from="-E1" to="-E1.49" fromLane="0" toLane="0" via=":clusterJ10_J11_J12_J13_#4more_7_0" tl="clusterJ10_J11_J12_J13_#4more" linkIndex="7" dir="s" state="O"/>
    <connection from="-E1" to="-E0.74" fromLane="0" toLane="0" via=":clusterJ10_J11_J12_J13_#4more_8_0" tl="clusterJ10_J11_J12_J13_#4more" linkIndex="8" dir="l" state="o"/>
    <connection from="E0" to="E1.39" fromLane="0" toLane="0" via=":clusterJ10_J11_J12_J13_#4more_9_0" tl="clusterJ10_J11_J12_J13_#4more" linkIndex="9" dir="r" state="o"/>
    <connection from="E0" to="E0.53" fromLane="0" toLane="0" via=":clusterJ10_J11_J12_J13_#4more_10_0" tl="clusterJ10_J11_J12_J13_#4more" linkIndex="10" dir="s" state="o"/>
    <connection from="E0" to="-E1.49" fromLane="0" toLane="0" via=":clusterJ10_J11_J12_J13_#4more_11_0" tl="clusterJ10_J11_J12_J13_#4more" linkIndex="11" dir="l" state="o"/>
    <connection from="E1" to="-E0.74" fromLane="0" toLane="0" via=":clusterJ10_J11_J12_J13_#4more_0_0" tl="clusterJ10_J11_J12_J13_#4more" linkIndex="0" dir="r" state="O"/>
    <connection from="E1" to="E1.39" fromLane="0" toLane="0" via=":clusterJ10_J11_J12_J13_#4more_1_0" tl="clusterJ10_J11_J12_J13_#4more" linkIndex="1" dir="s" state="O"/>
    <connection from="E1" to="E0.53" fromLane="0" toLane="0" via=":clusterJ10_J11_J12_J13_#4more_2_0" tl="clusterJ10_J11_J12_J13_#4more" linkIndex="2" dir="l" state="o"/>

    <connection from=":clusterJ10_J11_J12_J13_#4more_0" to="-E0.74" fromLane="0" toLane="0" dir="r" state="M"/>
    <connection from=":clusterJ10_J11_J12_J13_#4more_1" to="E1.39" fromLane="0" toLane="0" dir="s" state="M"/>
    <connection from=":clusterJ10_J11_J12_J13_#4more_2" to="E0.53" fromLane="0" toLane="0" via=":clusterJ10_J11_J12_J13_#4more_12_0" dir="l" state="m"/>
    <connection from=":clusterJ10_J11_J12_J13_#4more_12" to="E0.53" fromLane="0" toLane="0" dir="l" state="M"/>
    <connection from=":clusterJ10_J11_J12_J13_#4more_3" to="-E1.49" fromLane="0" toLane="0" dir="r" state="M"/>
    <connection from=":clusterJ10_J11_J12_J13_#4more_4" to="-E0.74" fromLane="0" toLane="0" dir="s" state="M"/>
    <connection from=":clusterJ10_J11_J12_J13_#4more_5" to="E1.39" fromLane="0" toLane="0" via=":clusterJ10_J11_J12_J13_#4more_13_0" dir="l" state="m"/>
    <connection from=":clusterJ10_J11_J12_J13_#4more_13" to="E1.39" fromLane="0" toLane="0" dir="l" state="M"/>
    <connection from=":clusterJ10_J11_J12_J13_#4more_6" to="E0.53" fromLane="0" toLane="0" dir="r" state="M"/>
    <connection from=":clusterJ10_J11_J12_J13_#4more_7" to="-E1.49" fromLane="0" toLane="0" dir="s" state="M"/>
    <connection from=":clusterJ10_J11_J12_J13_#4more_8" to="-E0.74" fromLane="0" toLane="0" via=":clusterJ10_J11_J12_J13_#4more_14_0" dir="l" state="m"/>
    <connection from=":clusterJ10_J11_J12_J13_#4more_14" to="-E0.74" fromLane="0" toLane="0" dir="l" state="M"/>
    <connection from=":clusterJ10_J11_J12_J13_#4more_9" to="E1.39" fromLane="0" toLane="0" dir="r" state="M"/>
    <connection from=":clusterJ10_J11_J12_J13_#4more_10" to="E0.53" fromLane="0" toLane="0" dir="s" state="M"/>
    <connection from=":clusterJ10_J11_J12_J13_#4more_11" to="-E1.49" fromLane="0" toLane="0" via=":clusterJ10_J11_J12_J13_#4more_15_0" dir="l" state="m"/>
    <connection from=":clusterJ10_J11_J12_J13_#4more_15" to="-E1.49" fromLane="0" toLane="0" dir="l" state="M"/>

</net>
