<?xml version="1.0" encoding="UTF-8"?>

<!-- generated on 2025-09-25 12:47:59 by Eclipse SUMO netedit Version 1.24.0
-->

<routes xmlns:xsi="http://www.w3.org/2001/XMLSchema-instance" xsi:noNamespaceSchemaLocation="http://sumo.dlr.de/xsd/routes_file.xsd">
    <!-- Vehicles, persons and containers (sorted by depart) -->
    <flow id="f_0" begin="0.00" color="255,83,0" from="E0" to="-E1.49" end="3600.00" vehsPerHour="1800"/>
    <flow id="f_1" begin="0.00" color="255,83,0" from="E0" to="E0.53" end="3600.00" vehsPerHour="1800"/>
    <flow id="f_10" begin="0.00" color="249,255,0" from="-E1" to="-E0.74" end="3600.00" vehsPerHour="1800"/>
    <flow id="f_11" begin="0.00" color="249,255,0" from="-E1" to="E0.53" end="3600.00" vehsPerHour="1800"/>
    <flow id="f_2" begin="0.00" color="255,83,0" from="E0" to="E1.39" end="3600.00" vehsPerHour="1800"/>
    <flow id="f_3" begin="0.00" color="0,102,255" from="E1" to="E1.39" end="3600.00" vehsPerHour="1800"/>
    <flow id="f_4" begin="0.00" color="0,102,255" from="E1" to="E0.53" end="3600.00" vehsPerHour="1800"/>
    <flow id="f_5" begin="0.00" color="0,102,255" from="E1" to="-E0.74" end="3600.00" vehsPerHour="1800"/>
    <flow id="f_6" begin="0.00" color="218,0,255" from="-E0" to="E1.39" end="3600.00" vehsPerHour="1800"/>
    <flow id="f_7" begin="0.00" color="218,0,255" from="-E0" to="-E0.74" end="3600.00" vehsPerHour="1800"/>
    <flow id="f_8" begin="0.00" color="218,0,255" from="-E0" to="-E1.49" end="3600.00" vehsPerHour="1800"/>
    <flow id="f_9" begin="0.00" color="249,255,0" from="-E1" to="-E1.49" end="3600.00" vehsPerHour="1800"/>
</routes>
