<?xml version="1.0" encoding="UTF-8"?>

<!-- generated on 2025-09-02 11:47:29 by Eclipse SUMO netedit Version 1.24.0
<neteditConfiguration xmlns:xsi="http://www.w3.org/2001/XMLSchema-instance" xsi:noNamespaceSchemaLocation="http://sumo.dlr.de/xsd/neteditConfiguration.xsd">

    <input>
        <sumo-net-file value="D:\Sumo Test\Test 1.net.xml"/>
    </input>

    <output>
        <output-file value="D:\Sumo Test\Test 1.net.xml"/>
    </output>

    <processing>
        <geometry.min-radius.fix.railways value="false"/>
        <geometry.avoid-overlap value="false"/>
        <geometry.max-grade.fix value="false"/>
        <offset.disable-normalization value="true"/>
        <lefthand value="0"/>
    </processing>

    <junctions>
        <no-turnarounds value="true"/>
        <junctions.corner-detail value="5"/>
        <junctions.limit-turn-speed value="5.50"/>
        <rectangular-lane-cut value="0"/>
    </junctions>

    <pedestrian>
        <walkingareas value="0"/>
    </pedestrian>

</neteditConfiguration>
-->

<net version="1.20" junctionCornerDetail="5" limitTurnSpeed="5.50" avoidOverlap="0" xmlns:xsi="http://www.w3.org/2001/XMLSchema-instance" xsi:noNamespaceSchemaLocation="http://sumo.dlr.de/xsd/net_file.xsd">

    <location netOffset="0.00,0.00" convBoundary="-94.21,-55.05,102.09,11.59" origBoundary="-10000000000.00,-10000000000.00,10000000000.00,10000000000.00" projParameter="!"/>

    <edge id=":J17_0" function="internal">
        <lane id=":J17_0_0" index="0" speed="3.65" length="4.67" shape="-5.10,-55.05 -4.30,-56.25 -3.50,-56.65 -2.70,-56.25 -1.90,-55.05"/>
    </edge>
    <edge id=":clusterJ14_J15_J16_0" function="internal">
        <lane id=":clusterJ14_J15_J16_0_0" index="0" speed="13.89" length="14.40" shape="3.70,13.19 -10.70,13.19"/>
    </edge>
    <edge id=":clusterJ14_J15_J16_1" function="internal">
        <lane id=":clusterJ14_J15_J16_1_0" index="0" speed="8.42" length="3.91" shape="3.70,13.19 -0.15,12.52"/>
    </edge>
    <edge id=":clusterJ14_J15_J16_6" function="internal">
        <lane id=":clusterJ14_J15_J16_6_0" index="0" speed="8.42" length="11.92" shape="-0.15,12.52 -2.90,10.49 -4.55,7.12 -5.10,2.40"/>
    </edge>
    <edge id=":clusterJ14_J15_J16_2" function="internal">
        <lane id=":clusterJ14_J15_J16_2_0" index="0" speed="7.02" length="10.68" shape="-1.90,2.40 -1.55,5.72 -0.50,8.09 1.25,9.52 3.70,9.99"/>
    </edge>
    <edge id=":clusterJ14_J15_J16_3" function="internal">
        <lane id=":clusterJ14_J15_J16_3_0" index="0" speed="8.42" length="15.83" shape="-1.90,2.40 -2.45,7.12 -4.10,10.49 -6.85,12.52 -10.70,13.19"/>
    </edge>
    <edge id=":clusterJ14_J15_J16_4" function="internal">
        <lane id=":clusterJ14_J15_J16_4_0" index="0" speed="7.02" length="10.68" shape="-10.70,9.99 -8.25,9.52 -6.50,8.09 -5.45,5.72 -5.10,2.40"/>
    </edge>
    <edge id=":clusterJ14_J15_J16_5" function="internal">
        <lane id=":clusterJ14_J15_J16_5_0" index="0" speed="13.89" length="14.40" shape="-10.70,9.99 3.70,9.99"/>
    </edge>

    <edge id="-E4" from="J10" to="clusterJ14_J15_J16" priority="-1" shape="102.09,11.59 2.42,11.59">
        <lane id="-E4_0" index="0" speed="13.89" length="98.39" shape="102.09,13.19 3.70,13.19"/>
    </edge>
    <edge id="-E4.99" from="clusterJ14_J15_J16" to="J9" priority="-1" shape="2.42,11.59 -94.21,11.59">
        <lane id="-E4.99_0" index="0" speed="13.89" length="83.51" shape="-10.70,13.19 -94.21,13.19"/>
    </edge>
    <edge id="-E5" from="J17" to="clusterJ14_J15_J16" priority="-1" shape="-3.50,-55.05 -3.50,2.40">
        <lane id="-E5_0" index="0" speed="13.89" length="57.45" shape="-1.90,-55.05 -1.90,2.40"/>
    </edge>
    <edge id="E4" from="J9" to="clusterJ14_J15_J16" priority="-1" shape="-94.21,11.59 -6.77,11.59">
        <lane id="E4_0" index="0" speed="13.89" length="83.51" shape="-94.21,9.99 -10.70,9.99"/>
    </edge>
    <edge id="E4.87" from="clusterJ14_J15_J16" to="J10" priority="-1" shape="-6.77,11.59 102.09,11.59">
        <lane id="E4.87_0" index="0" speed="13.89" length="98.39" shape="3.70,9.99 102.09,9.99"/>
    </edge>
    <edge id="E5" from="clusterJ14_J15_J16" to="J17" priority="-1" shape="-3.50,2.40 -3.50,-55.05">
        <lane id="E5_0" index="0" speed="13.89" length="57.45" shape="-5.10,2.40 -5.10,-55.05"/>
    </edge>

    <tlLogic id="clusterJ14_J15_J16" type="static" programID="0" offset="0">
        <phase duration="42" state="GgrrGG"/>
        <phase duration="3"  state="yyrrGy"/>
        <phase duration="42" state="rrGGGr"/>
        <phase duration="3"  state="rryyGr"/>
    </tlLogic>

    <junction id="J10" type="dead_end" x="102.09" y="11.59" incLanes="E4.87_0" intLanes="" shape="102.09,11.59 102.09,8.39 102.09,11.59"/>
    <junction id="J17" type="priority" x="-3.50" y="-55.05" incLanes="E5_0" intLanes=":J17_0_0" shape="-3.50,-55.05 -6.70,-55.05 -3.50,-55.05">
        <request index="0" response="0" foes="0" cont="0"/>
    </junction>
    <junction id="J9" type="dead_end" x="-94.21" y="11.59" incLanes="-E4.99_0" intLanes="" shape="-94.21,11.59 -94.21,14.79 -94.21,11.59"/>
    <junction id="clusterJ14_J15_J16" type="traffic_light" x="-2.62" y="8.52" incLanes="-E4_0 -E5_0 E4_0" intLanes=":clusterJ14_J15_J16_0_0 :clusterJ14_J15_J16_6_0 :clusterJ14_J15_J16_2_0 :clusterJ14_J15_J16_3_0 :clusterJ14_J15_J16_4_0 :clusterJ14_J15_J16_5_0" shape="3.70,14.79 3.70,8.39 1.48,7.72 0.70,6.89 0.14,5.73 -0.19,4.23 -0.30,2.40 -6.70,2.40 -7.14,5.73 -7.70,6.89 -8.48,7.72 -9.48,8.22 -10.70,8.39 -10.70,14.79">
        <request index="0" response="000000" foes="001000" cont="0"/>
        <request index="1" response="110000" foes="111000" cont="1"/>
        <request index="2" response="100000" foes="100000" cont="0"/>
        <request index="3" response="100011" foes="100011" cont="0"/>
        <request index="4" response="000000" foes="000010" cont="0"/>
        <request index="5" response="000000" foes="001110" cont="0"/>
    </junction>

    <junction id=":clusterJ14_J15_J16_6_0" type="internal" x="-0.15" y="12.52" incLanes=":clusterJ14_J15_J16_1_0 E4_0" intLanes=":clusterJ14_J15_J16_3_0 :clusterJ14_J15_J16_4_0 :clusterJ14_J15_J16_5_0"/>

    <connection from="-E4" to="-E4.99" fromLane="0" toLane="0" via=":clusterJ14_J15_J16_0_0" tl="clusterJ14_J15_J16" linkIndex="0" dir="s" state="O"/>
    <connection from="-E4" to="E5" fromLane="0" toLane="0" via=":clusterJ14_J15_J16_1_0" tl="clusterJ14_J15_J16" linkIndex="1" dir="l" state="o"/>
    <connection from="-E5" to="E4.87" fromLane="0" toLane="0" via=":clusterJ14_J15_J16_2_0" tl="clusterJ14_J15_J16" linkIndex="2" dir="r" state="o"/>
    <connection from="-E5" to="-E4.99" fromLane="0" toLane="0" via=":clusterJ14_J15_J16_3_0" tl="clusterJ14_J15_J16" linkIndex="3" dir="l" state="o"/>
    <connection from="E4" to="E5" fromLane="0" toLane="0" via=":clusterJ14_J15_J16_4_0" tl="clusterJ14_J15_J16" linkIndex="4" dir="r" state="O"/>
    <connection from="E4" to="E4.87" fromLane="0" toLane="0" via=":clusterJ14_J15_J16_5_0" tl="clusterJ14_J15_J16" linkIndex="5" dir="s" state="O"/>
    <connection from="E5" to="-E5" fromLane="0" toLane="0" via=":J17_0_0" dir="t" state="M"/>

    <connection from=":J17_0" to="-E5" fromLane="0" toLane="0" dir="t" state="M"/>
    <connection from=":clusterJ14_J15_J16_0" to="-E4.99" fromLane="0" toLane="0" dir="s" state="M"/>
    <connection from=":clusterJ14_J15_J16_1" to="E5" fromLane="0" toLane="0" via=":clusterJ14_J15_J16_6_0" dir="l" state="m"/>
    <connection from=":clusterJ14_J15_J16_6" to="E5" fromLane="0" toLane="0" dir="l" state="M"/>
    <connection from=":clusterJ14_J15_J16_2" to="E4.87" fromLane="0" toLane="0" dir="r" state="M"/>
    <connection from=":clusterJ14_J15_J16_3" to="-E4.99" fromLane="0" toLane="0" dir="l" state="M"/>
    <connection from=":clusterJ14_J15_J16_4" to="E5" fromLane="0" toLane="0" dir="r" state="M"/>
    <connection from=":clusterJ14_J15_J16_5" to="E4.87" fromLane="0" toLane="0" dir="s" state="M"/>

</net>
