<?xml version="1.0" encoding="UTF-8"?>

<!-- generated on 2025-09-02 14:27:44 by Eclipse SUMO netedit Version 1.24.0
-->

<routes xmlns:xsi="http://www.w3.org/2001/XMLSchema-instance" xsi:noNamespaceSchemaLocation="http://sumo.dlr.de/xsd/routes_file.xsd">
    <!-- Vehicles, persons and containers (sorted by depart) -->
    <flow id="f_0" begin="0.00" color="green" from="E4" to="E4.87" end="3600.00" vehsPerHour="1800"/>
    <flow id="f_1" begin="0.00" color="blue" from="-E4" to="-E4.99" end="3600.00" vehsPerHour="1800"/>
    <flow id="f_2" begin="0.00" color="blue" from="-E4" to="E5" end="3600.00" vehsPerHour="1800"/>
    <flow id="f_3" begin="0.00" color="green" from="E4" to="-E5" end="3600.00" vehsPerHour="1800"/>
    <flow id="f_4" begin="0.00" color="grey" from="-E5" to="E4.87" end="3600.00" vehsPerHour="1800"/>
    <flow id="f_5" begin="0.00" color="grey" from="-E5" to="-E4.99" end="3600.00" vehsPerHour="1800"/>
</routes>
